STAAD SPACE
START JOB INFORMATION
ENGINEER DATE 13-Mar-13
END JOB INFORMATION
INPUT WIDTH 79
UNIT METER KN
JOINT COORDINATES
1 0 0 0; 2 4 0 0; 3 8 0 0; 4 12 0 0; 5 0 0 6; 6 4 0 6; 7 8 0 6; 8 12 0 6;
9 0 0 12; 10 4 0 12; 11 8 0 12; 12 12 0 12; 13 0 0 18; 14 4 0 18; 15 8 0 18;
16 12 0 18; 17 0 3 0; 18 4 3 0; 19 8 3 0; 20 12 3 0; 21 0 3 6; 22 4 3 6;
23 8 3 6; 24 12 3 6; 25 0 3 12; 26 4 3 12; 27 8 3 12; 28 12 3 12; 29 0 3 18;
30 4 3 18; 31 8 3 18; 32 12 3 18; 33 0.2 3 0; 34 0.2 3 0.3; 35 0 3 0.3;
36 0.4 3 0; 37 0.4 3 0.3; 38 0.6 3 0; 39 0.6 3 0.3; 40 0.8 3 0; 41 0.8 3 0.3;
42 1 3 0; 43 1 3 0.3; 44 1.2 3 0; 45 1.2 3 0.3; 46 1.4 3 0; 47 1.4 3 0.3;
48 1.6 3 0; 49 1.6 3 0.3; 50 1.8 3 0; 51 1.8 3 0.3; 52 2 3 0; 53 2 3 0.3;
54 2.2 3 0; 55 2.2 3 0.3; 56 2.4 3 0; 57 2.4 3 0.3; 58 2.6 3 0; 59 2.6 3 0.3;
60 2.8 3 0; 61 2.8 3 0.3; 62 3 3 0; 63 3 3 0.3; 64 3.2 3 0; 65 3.2 3 0.3;
66 3.4 3 0; 67 3.4 3 0.3; 68 3.6 3 0; 69 3.6 3 0.3; 70 3.8 3 0; 71 3.8 3 0.3;
72 4 3 0.3; 73 0.2 3 0.6; 74 0 3 0.6; 75 0.4 3 0.6; 76 0.6 3 0.6; 77 0.8 3 0.6;
78 1 3 0.6; 79 1.2 3 0.6; 80 1.4 3 0.6; 81 1.6 3 0.6; 82 1.8 3 0.6; 83 2 3 0.6;
84 2.2 3 0.6; 85 2.4 3 0.6; 86 2.6 3 0.6; 87 2.8 3 0.6; 88 3 3 0.6;
89 3.2 3 0.6; 90 3.4 3 0.6; 91 3.6 3 0.6; 92 3.8 3 0.6; 93 4 3 0.6;
94 0.2 3 0.9; 95 0 3 0.9; 96 0.4 3 0.9; 97 0.6 3 0.9; 98 0.8 3 0.9; 99 1 3 0.9;
100 1.2 3 0.9; 101 1.4 3 0.9; 102 1.6 3 0.9; 103 1.8 3 0.9; 104 2 3 0.9;
105 2.2 3 0.9; 106 2.4 3 0.9; 107 2.6 3 0.9; 108 2.8 3 0.9; 109 3 3 0.9;
110 3.2 3 0.9; 111 3.4 3 0.9; 112 3.6 3 0.9; 113 3.8 3 0.9; 114 4 3 0.9;
115 0.2 3 1.2; 116 0 3 1.2; 117 0.4 3 1.2; 118 0.6 3 1.2; 119 0.8 3 1.2;
# ... 805 like lines cut
MEMBER INCIDENCES
25 17 33; 26 18 470; 27 19 888; 28 21 451; 29 22 869; 30 23 1287; 31 25 1705;
32 26 2104; 33 27 2503; 34 29 2921; 35 30 3320; 36 31 3719; 37 17 35; 38 18 72;
39 19 508; 40 20 926; 41 21 1307; 42 22 1326; 43 23 1743; 44 24 2142;
45 25 2523; 46 26 2542; 47 27 2959; 48 28 3358; 49 1 17; 50 2 18; 51 3 19;
52 4 20; 53 5 21; 54 6 22; 55 7 23; 56 8 24; 57 9 25; 58 10 26; 59 11 27;
60 12 28; 61 13 29; 62 14 30; 63 15 31; 64 16 32; 74 33 36; 75 35 74; 77 36 38;
79 38 40; 81 40 42; 83 42 44; 85 44 46; 87 46 48; 89 48 50; 91 50 52; 93 52 54;
95 54 56; 97 56 58; 99 58 60; 101 60 62; 103 62 64; 105 64 66; 107 66 68;
109 68 70; 111 70 18; 113 72 93; 115 74 95; 135 93 114; 137 95 116;
157 114 135; 159 116 137; 179 135 156; 181 137 158; 201 156 177; 203 158 179;
223 177 198; 225 179 200; 245 198 219; 247 200 221; 267 219 240; 269 221 242;
289 240 261; 291 242 263; 311 261 282; 313 263 284; 333 282 303; 335 284 305;
355 303 324; 357 305 326; 377 324 345; 379 326 347; 399 345 366; 401 347 368;
421 366 387; 423 368 389; 443 387 408; 445 389 410; 465 408 429; 467 410 431;
487 429 450; 489 431 21; 509 450 22; 511 451 452; 513 452 453; 515 453 454;
517 454 455; 519 455 456; 521 456 457; 523 457 458; 525 458 459; 527 459 460;
529 460 461; 531 461 462; 533 462 463; 535 463 464; 537 464 465; 539 465 466;
541 466 467; 543 467 468; 545 468 469; 547 469 22; 550 470 472; 552 472 474;
554 474 476; 556 476 478; 558 478 480; 560 480 482; 562 482 484; 564 484 486;
566 486 488; 568 488 490; 570 490 492; 572 492 494; 574 494 496; 576 496 498;
# ... 72 like lines cut
ELEMENT INCIDENCES SHELL
76 17 33 34 35; 78 33 36 37 34; 80 36 38 39 37; 82 38 40 41 39; 84 40 42 43 41;
86 42 44 45 43; 88 44 46 47 45; 90 46 48 49 47; 92 48 50 51 49; 94 50 52 53 51;
96 52 54 55 53; 98 54 56 57 55; 100 56 58 59 57; 102 58 60 61 59;
104 60 62 63 61; 106 62 64 65 63; 108 64 66 67 65; 110 66 68 69 67;
112 68 70 71 69; 114 70 18 72 71; 116 35 34 73 74; 117 34 37 75 73;
118 37 39 76 75; 119 39 41 77 76; 120 41 43 78 77; 121 43 45 79 78;
122 45 47 80 79; 123 47 49 81 80; 124 49 51 82 81; 125 51 53 83 82;
126 53 55 84 83; 127 55 57 85 84; 128 57 59 86 85; 129 59 61 87 86;
130 61 63 88 87; 131 63 65 89 88; 132 65 67 90 89; 133 67 69 91 90;
134 69 71 92 91; 136 71 72 93 92; 138 74 73 94 95; 139 73 75 96 94;
140 75 76 97 96; 141 76 77 98 97; 142 77 78 99 98; 143 78 79 100 99;
144 79 80 101 100; 145 80 81 102 101; 146 81 82 103 102; 147 82 83 104 103;
148 83 84 105 104; 149 84 85 106 105; 150 85 86 107 106; 151 86 87 108 107;
152 87 88 109 108; 153 88 89 110 109; 154 89 90 111 110; 155 90 91 112 111;
156 91 92 113 112; 158 92 93 114 113; 160 95 94 115 116; 161 94 96 117 115;
162 96 97 118 117; 163 97 98 119 118; 164 98 99 120 119; 165 99 100 121 120;
166 100 101 122 121; 167 101 102 123 122; 168 102 103 124 123;
169 103 104 125 124; 170 104 105 126 125; 171 105 106 127 126;
172 106 107 128 127; 173 107 108 129 128; 174 108 109 130 129;
175 109 110 131 130; 176 110 111 132 131; 177 111 112 133 132;
# ... 1174 like lines cut
ELEMENT PROPERTY
76 78 80 82 84 86 88 90 92 94 96 98 100 102 104 106 108 110 112 114 -
116 TO 134 136 138 TO 156 158 160 TO 178 180 182 TO 200 202 204 TO 222 224 -
226 TO 244 246 248 TO 266 268 270 TO 288 290 292 TO 310 312 314 TO 332 334 -
336 TO 354 356 358 TO 376 378 380 TO 398 400 402 TO 420 422 424 TO 442 444 -
446 TO 464 466 468 TO 486 488 490 TO 508 510 512 514 516 518 520 522 524 -
526 528 530 532 534 536 538 540 542 544 546 548 549 551 553 555 557 559 561 -
563 565 567 569 571 573 575 577 579 581 583 585 587 589 TO 608 610 TO 629 -
631 TO 650 652 TO 671 673 TO 692 694 TO 713 715 TO 734 736 TO 755 -
757 TO 776 778 TO 797 799 TO 818 820 TO 839 841 TO 860 862 TO 881 -
883 TO 902 904 TO 923 925 TO 944 946 TO 965 967 969 971 973 975 977 979 981 -
983 985 987 989 991 993 995 997 999 1001 1003 1005 1006 1008 1010 1012 1014 -
1016 1018 1020 1022 1024 1026 1028 1030 1032 1034 1036 1038 1040 1042 1044 -
1046 TO 1065 1067 TO 1086 1088 TO 1107 1109 TO 1128 1130 TO 1149 -
1151 TO 1170 1172 TO 1191 1193 TO 1212 1214 TO 1233 1235 TO 1254 -
1256 TO 1275 1277 TO 1296 1298 TO 1317 1319 TO 1338 1340 TO 1359 -
1361 TO 1380 1382 TO 1401 1403 TO 1422 1424 THICKNESS 0.135
1426 1428 1430 1432 1434 1436 1438 1440 1442 1444 1446 1448 1450 1452 1454 -
1456 1458 1460 1462 1463 1465 TO 1483 1485 1487 TO 1505 1507 1509 TO 1527 -
1529 1531 TO 1549 1551 1553 TO 1571 1573 1575 TO 1593 1595 1597 TO 1615 1617 -
1619 TO 1637 1639 1641 TO 1659 1661 1663 TO 1681 1683 1685 TO 1703 1705 1707 -
1708 TO 1725 1727 1729 TO 1747 1749 1751 TO 1769 1771 1773 TO 1791 1793 1795 -
1796 TO 1813 1815 1817 TO 1835 1837 1839 TO 1857 1859 1861 TO 1879 1881 1883 -
1885 1887 1889 1891 1893 1895 1897 1899 1901 1903 1905 1907 1909 1911 1913 -
1915 1917 1919 TO 1939 1941 TO 1960 1962 TO 1981 1983 TO 2002 2004 TO 2023 -
2025 TO 2044 2046 TO 2065 2067 TO 2086 2088 TO 2107 2109 TO 2128 -
2130 TO 2149 2151 TO 2170 2172 TO 2191 2193 TO 2212 2214 TO 2233 -
2235 TO 2254 2256 TO 2275 2277 TO 2296 2298 TO 2317 2319 2321 2323 2325 2327 -
2329 2331 2333 2335 2337 2339 2341 2343 2345 2347 2349 2351 2353 2355 2357 -
2358 TO 2377 2379 TO 2398 2400 TO 2419 2421 TO 2440 2442 TO 2461 2463 TO 2482 -
2484 TO 2503 2505 TO 2524 2526 TO 2545 2547 TO 2566 2568 TO 2587 -
2589 TO 2608 2610 TO 2629 2631 TO 2650 2652 TO 2671 2673 TO 2692 -
2694 TO 2713 2715 TO 2734 2736 TO 2755 2757 2759 2761 2763 2765 2767 2769 -
2771 2773 2775 2777 2779 2781 2783 2785 2787 2789 2791 2793 2795 2796 2798 -
2799 TO 2816 2818 2820 TO 2838 2840 2842 TO 2860 2862 THICKNESS 0.135
2864 TO 2882 2884 2886 TO 2904 2906 2908 TO 2926 2928 2930 TO 2948 2950 2952 -
2953 TO 2970 2972 2974 TO 2992 2994 2996 TO 3014 3016 3018 TO 3036 3038 3040 -
3041 TO 3058 3060 3062 TO 3080 3082 3084 TO 3102 3104 3106 TO 3124 3126 3128 -
3129 TO 3146 3148 3150 TO 3168 3170 3172 TO 3190 3192 3194 TO 3212 3214 3216 -
3218 3220 3222 3224 3226 3228 3230 3232 3234 3236 3238 3240 3242 3244 3246 -
3248 3250 3252 TO 3272 3274 TO 3293 3295 TO 3314 3316 TO 3335 3337 TO 3356 -
3358 TO 3377 3379 TO 3398 3400 TO 3419 3421 TO 3440 3442 TO 3461 -
3463 TO 3482 3484 TO 3503 3505 TO 3524 3526 TO 3545 3547 TO 3566 -
3568 TO 3587 3589 TO 3608 3610 TO 3629 3631 TO 3650 3652 3654 3656 3658 3660 -
3662 3664 3666 3668 3670 3672 3674 3676 3678 3680 3682 3684 3686 3688 3690 -
3691 TO 3710 3712 TO 3731 3733 TO 3752 3754 TO 3773 3775 TO 3794 3796 TO 3815 -
3817 TO 3836 3838 TO 3857 3859 TO 3878 3880 TO 3899 3901 TO 3920 -
3922 TO 3941 3943 TO 3962 3964 TO 3983 3985 TO 4004 4006 TO 4025 -
4027 TO 4046 4048 TO 4067 4069 TO 4088 4090 4092 4094 4096 4098 4100 4102 -
4104 4106 4108 4110 4112 4114 4116 4118 4120 4122 4124 4126 4128 -
4129 THICKNESS 0.135
DEFINE MATERIAL START
ISOTROPIC CONCRETE
E 2.17185e+007
POISSON 0.17
DENSITY 23.5616
ALPHA 1e-005
DAMP 0.05
END DEFINE MATERIAL
MEMBER PROPERTY AMERICAN
49 TO 64 PRIS YD 0.2 ZD 0.2
MEMBER PROPERTY AMERICAN
37 TO 48 75 113 115 135 137 157 159 179 181 201 203 223 225 245 247 267 269 -
289 291 311 313 333 335 355 357 377 379 399 401 421 423 443 445 465 467 487 -
489 509 588 609 630 651 672 693 714 735 756 777 798 819 840 861 882 903 924 -
945 966 1045 1066 1087 1108 1129 1150 1171 1192 1213 1234 1255 1276 1297 -
1318 1339 1360 1381 1402 1423 1464 1484 1486 1506 1508 1528 1530 1550 1552 -
1572 1574 1594 1596 1616 1618 1638 1640 1660 1662 1682 1684 1704 1706 1726 -
1728 1748 1750 1770 1772 1792 1794 1814 1816 1836 1838 1858 1860 1880 1940 -
1961 1982 2003 2024 2045 2066 2087 2108 2129 2150 2171 2192 2213 2234 2255 -
2276 2297 2318 2378 2399 2420 2441 2462 2483 2504 2525 2546 2567 2588 2609 -
2630 2651 2672 2693 2714 2735 2756 2797 2817 2819 2839 2841 2861 2863 2883 -
2885 2905 2907 2927 2929 2949 2951 2971 2973 2993 2995 3015 3017 3037 3039 -
3059 3061 3081 3083 3103 3105 3125 3127 3147 3149 3169 3171 3191 3193 3213 -
3273 3294 3315 3336 3357 3378 3399 3420 3441 3462 3483 3504 3525 3546 3567 -
3588 3609 3630 3651 3711 3732 3753 3774 3795 3816 3837 3858 3879 3900 3921 -
3942 3963 3984 4005 4026 4047 4068 4089 PRIS YD 0 ZD 0
MEMBER PROPERTY
25 TO 36 74 77 79 81 83 85 87 89 91 93 95 97 99 101 103 105 107 109 111 511 -
513 515 517 519 521 523 525 527 529 531 533 535 537 539 541 543 545 547 550 -
552 554 556 558 560 562 564 566 568 570 572 574 576 578 580 582 584 586 968 -
970 972 974 976 978 980 982 984 986 988 990 992 994 996 998 1000 1002 1004 -
1007 1009 1011 1013 1015 1017 1019 1021 1023 1025 1027 1029 1031 1033 1035 -
1037 1039 1041 1043 1425 1427 1429 1431 1433 1435 1437 1439 1441 1443 1445 -
1447 1449 1451 1453 1455 1457 1459 1461 1882 1884 1886 1888 1890 1892 1894 -
1896 1898 1900 1902 1904 1906 1908 1910 1912 1914 1916 1918 2320 2322 2324 -
2326 2328 2330 2332 2334 2336 2338 2340 2342 2344 2346 2348 2350 2352 2354 -
2356 2758 2760 2762 2764 2766 2768 2770 2772 2774 2776 2778 2780 2782 2784 -
2786 2788 2790 2792 2794 3215 3217 3219 3221 3223 3225 3227 3229 3231 3233 -
3235 3237 3239 3241 3243 3245 3247 3249 3251 3653 3655 3657 3659 3661 3663 -
3665 3667 3669 3671 3673 3675 3677 3679 3681 3683 3685 3687 3689 4091 4093 -
4095 4097 4099 4101 4103 4105 4107 4109 4111 4113 4115 4117 4119 4121 4123 -
4125 4127 PRIS YD 0.4 ZD 0.3
CONSTANTS
MATERIAL CONCRETE ALL
SUPPORTS
1 TO 16 FIXED
LOAD 1 LOADTYPE Dead  TITLE DL
SELFWEIGHT Y -1 LIST 25 TO 64 74 TO 4129
LOAD 2 LOADTYPE Live  TITLE LL
ELEMENT LOAD
76 78 80 82 84 86 88 90 92 94 96 98 100 102 104 106 108 110 112 114 -
116 TO 134 136 138 TO 156 158 160 TO 178 180 182 TO 200 202 204 TO 222 224 -
226 TO 244 246 248 TO 266 268 270 TO 288 290 292 TO 310 312 314 TO 332 334 -
336 TO 354 356 358 TO 376 378 380 TO 398 400 402 TO 420 422 424 TO 442 444 -
446 TO 464 466 468 TO 486 488 490 TO 508 510 512 514 516 518 520 522 524 -
526 528 530 532 534 536 538 540 542 544 546 548 549 551 553 555 557 559 561 -
563 565 567 569 571 573 575 577 579 581 583 585 587 589 TO 608 610 TO 629 -
631 TO 650 652 TO 671 673 TO 692 694 TO 713 715 TO 734 736 TO 755 -
757 TO 776 778 TO 797 799 TO 818 820 TO 839 841 TO 860 862 TO 881 -
883 TO 902 904 TO 923 925 TO 944 946 TO 965 967 969 971 973 975 977 979 981 -
983 985 987 989 991 993 995 997 999 1001 1003 1005 1006 1008 1010 1012 1014 -
1016 1018 1020 1022 1024 1026 1028 1030 1032 1034 1036 1038 1040 1042 1044 -
1046 TO 1065 1067 TO 1086 1088 TO 1107 1109 TO 1128 1130 TO 1149 -
1151 TO 1170 1172 TO 1191 1193 TO 1212 1214 TO 1233 1235 TO 1254 -
1256 TO 1275 1277 TO 1296 1298 TO 1317 1319 TO 1338 1340 TO 1359 -
1361 TO 1380 1382 TO 1401 1403 TO 1422 1424 PR GY -4
1426 1428 1430 1432 1434 1436 1438 1440 1442 1444 1446 1448 1450 1452 1454 -
1456 1458 1460 1462 1463 1465 TO 1483 1485 1487 TO 1505 1507 1509 TO 1527 -
1529 1531 TO 1549 1551 1553 TO 1571 1573 1575 TO 1593 1595 1597 TO 1615 1617 -
1619 TO 1637 1639 1641 TO 1659 1661 1663 TO 1681 1683 1685 TO 1703 1705 1707 -
1708 TO 1725 1727 1729 TO 1747 1749 1751 TO 1769 1771 1773 TO 1791 1793 1795 -
1796 TO 1813 1815 1817 TO 1835 1837 1839 TO 1857 1859 1861 TO 1879 1881 1883 -
1885 1887 1889 1891 1893 1895 1897 1899 1901 1903 1905 1907 1909 1911 1913 -
1915 1917 1919 TO 1939 1941 TO 1960 1962 TO 1981 1983 TO 2002 2004 TO 2023 -
2025 TO 2044 2046 TO 2065 2067 TO 2086 2088 TO 2107 2109 TO 2128 -
2130 TO 2149 2151 TO 2170 2172 TO 2191 2193 TO 2212 2214 TO 2233 -
2235 TO 2254 2256 TO 2275 2277 TO 2296 2298 TO 2317 2319 2321 2323 2325 2327 -
2329 2331 2333 2335 2337 2339 2341 2343 2345 2347 2349 2351 2353 2355 2357 -
2358 TO 2377 2379 TO 2398 2400 TO 2419 2421 TO 2440 2442 TO 2461 2463 TO 2482 -
2484 TO 2503 2505 TO 2524 2526 TO 2545 2547 TO 2566 2568 TO 2587 -
2589 TO 2608 2610 TO 2629 2631 TO 2650 2652 TO 2671 2673 TO 2692 -
2694 TO 2713 2715 TO 2734 2736 TO 2755 2757 2759 2761 2763 2765 2767 2769 -
2771 2773 2775 2777 2779 2781 2783 2785 2787 2789 2791 2793 2795 2796 2798 -
2799 TO 2816 2818 2820 TO 2838 2840 2842 TO 2860 2862 PR GY -4
2864 TO 2882 2884 2886 TO 2904 2906 2908 TO 2926 2928 2930 TO 2948 2950 2952 -
2953 TO 2970 2972 2974 TO 2992 2994 2996 TO 3014 3016 3018 TO 3036 3038 3040 -
3041 TO 3058 3060 3062 TO 3080 3082 3084 TO 3102 3104 3106 TO 3124 3126 3128 -
3129 TO 3146 3148 3150 TO 3168 3170 3172 TO 3190 3192 3194 TO 3212 3214 3216 -
3218 3220 3222 3224 3226 3228 3230 3232 3234 3236 3238 3240 3242 3244 3246 -
3248 3250 3252 TO 3272 3274 TO 3293 3295 TO 3314 3316 TO 3335 3337 TO 3356 -
3358 TO 3377 3379 TO 3398 3400 TO 3419 3421 TO 3440 3442 TO 3461 -
3463 TO 3482 3484 TO 3503 3505 TO 3524 3526 TO 3545 3547 TO 3566 -
3568 TO 3587 3589 TO 3608 3610 TO 3629 3631 TO 3650 3652 3654 3656 3658 3660 -
3662 3664 3666 3668 3670 3672 3674 3676 3678 3680 3682 3684 3686 3688 3690 -
3691 TO 3710 3712 TO 3731 3733 TO 3752 3754 TO 3773 3775 TO 3794 3796 TO 3815 -
3817 TO 3836 3838 TO 3857 3859 TO 3878 3880 TO 3899 3901 TO 3920 -
3922 TO 3941 3943 TO 3962 3964 TO 3983 3985 TO 4004 4006 TO 4025 -
4027 TO 4046 4048 TO 4067 4069 TO 4088 4090 4092 4094 4096 4098 4100 4102 -
4104 4106 4108 4110 4112 4114 4116 4118 4120 4122 4124 4126 4128 -
4129 PR GY -4
LOAD 3 LOADTYPE None  TITLE LINE LOAD ON X BEAMS
MEMBER LOAD
25 TO 36 74 77 79 81 83 85 87 89 91 93 95 97 99 101 103 105 107 109 111 511 -
513 515 517 519 521 523 525 527 529 531 533 535 537 539 541 543 545 547 550 -
552 554 556 558 560 562 564 566 568 570 572 574 576 578 580 582 584 586 968 -
970 972 974 976 978 980 982 984 986 988 990 992 994 996 998 1000 1002 1004 -
1007 1009 1011 1013 1015 1017 1019 1021 1023 1025 1027 1029 1031 1033 1035 -
1037 1039 1041 1043 1425 1427 1429 1431 1433 1435 1437 1439 1441 1443 1445 -
1447 1449 1451 1453 1455 1457 1459 1461 1882 1884 1886 1888 1890 1892 1894 -
1896 1898 1900 1902 1904 1906 1908 1910 1912 1914 1916 1918 2320 2322 2324 -
2326 2328 2330 2332 2334 2336 2338 2340 2342 2344 2346 2348 2350 2352 2354 -
2356 2758 2760 2762 2764 2766 2768 2770 2772 2774 2776 2778 2780 2782 2784 -
2786 2788 2790 2792 2794 3215 3217 3219 3221 3223 3225 3227 3229 3231 3233 -
3235 3237 3239 3241 3243 3245 3247 3249 3251 3653 3655 3657 3659 3661 3663 -
3665 3667 3669 3671 3673 3675 3677 3679 3681 3683 3685 3687 3689 4091 4093 -
4095 4097 4099 4101 4103 4105 4107 4109 4111 4113 4115 4117 4119 4121 4123 -
4125 4127 UNI GY -12
LOAD 4 LOADTYPE None  TITLE LINE LOAD ON Z BEAMS
MEMBER LOAD
37 TO 48 75 113 115 135 137 157 159 179 181 201 203 223 225 245 247 267 269 -
289 291 311 313 333 335 355 357 377 379 399 401 421 423 443 445 465 467 487 -
489 509 588 609 630 651 672 693 714 735 756 777 798 819 840 861 882 903 924 -
945 966 1045 1066 1087 1108 1129 1150 1171 1192 1213 1234 1255 1276 1297 -
1318 1339 1360 1381 1402 1423 1464 1484 1486 1506 1508 1528 1530 1550 1552 -
1572 1574 1594 1596 1616 1618 1638 1640 1660 1662 1682 1684 1704 1706 1726 -
1728 1748 1750 1770 1772 1792 1794 1814 1816 1836 1838 1858 1860 1880 1940 -
1961 1982 2003 2024 2045 2066 2087 2108 2129 2150 2171 2192 2213 2234 2255 -
2276 2297 2318 2378 2399 2420 2441 2462 2483 2504 2525 2546 2567 2588 2609 -
2630 2651 2672 2693 2714 2735 2756 2797 2817 2819 2839 2841 2861 2863 2883 -
2885 2905 2907 2927 2929 2949 2951 2971 2973 2993 2995 3015 3017 3037 3039 -
3059 3061 3081 3083 3103 3105 3125 3127 3147 3149 3169 3171 3191 3193 3213 -
3273 3294 3315 3336 3357 3378 3399 3420 3441 3462 3483 3504 3525 3546 3567 -
3588 3609 3630 3651 3711 3732 3753 3774 3795 3816 3837 3858 3879 3900 3921 -
3942 3963 3984 4005 4026 4047 4068 4089 UNI GY -12
LOAD COMB 5 NO LOAD ON BEAMS
1 1.0 2 1.0 
LOAD COMB 6 LINE LOAD ON ONLY X BEAMS
1 1.0 2 1.0 3 1.0 
LOAD COMB 7 LINE LOAD ON ONLY Z BEAMS
1 1.0 2 1.0 4 1.0 
LOAD COMB 8 LINE LOAD ON ALL BEAMS
1 1.0 2 1.0 3 1.0 4 1.0 
PRINT PROBLEM STATISTICS
PERFORM ANALYSIS PRINT ALL
PRINT ANALYSIS RESULTS
FINISH
